*==========================================================
*  Simple BSIM4.7 demo model  (NMOS / PMOS)
*  → 解析基盤用のサンプル。実チップ用は自分のデッキに差し替え。
*==========================================================

*----------------- NMOS -----------------------------------
.model NMOS_B4 nmos level=54
+ version = 4.7
+ tox     = 1.5e-9
+ ndep    = 1.0e18
+ u0      = 0.05
+ vsat    = 1.0e5
+ eta0    = 0.10      ; DIBL main
+ etab    = -0.10
+ dvt0    = 2.0
+ dvt1    = 0.5
+ dvt2    = -0.1
+ dvt0w   = 0.0
+ dvt1w   = 5.0e6
+ dvt2w   = 0.0
+ voff    = -0.10
+ k1      = 0.5
+ k2      = -0.1
+ nfactor = 1.2
+ xj      = 1.0e-8
+ dl      = 0
+ dw      = 0

*----------------- PMOS -----------------------------------
.model PMOS_B4 pmos level=54
+ version = 4.7
+ tox     = 1.5e-9
+ ndep    = 1.0e18
+ u0      = 0.02
+ vsat    = 8.0e4
+ eta0    = 0.10
+ etab    = -0.10
+ dvt0    = 2.0
+ dvt1    = 0.5
+ dvt2    = -0.1
+ dvt0w   = 0.0
+ dvt1w   = 5.0e6
+ dvt2w   = 0.0
+ voff    = 0.10
+ k1      = 0.5
+ k2      = -0.1
+ nfactor = 1.2
+ xj      = 1.0e-8
+ dl      = 0
+ dw      = 0
